%mem=15GB
%nprocshared=20
#p b3lyp/6-311g(d,p) geom=connectivity empiricaldispersion=gd3 test

BTBT opt b3lyp/6-311G** GD3

0 1
S       3.894604    3.183597   14.912869
S       0.555154    4.997397   16.668645
C       3.041517    3.421416   12.272732
C       2.111172    3.851449   11.341325
C       0.971834    4.536141   11.800555
C       0.738869    4.760053   13.124292
C       3.718455    3.430001   18.453338
C       3.474971    3.625639   19.784412
C       2.322478    4.285717   20.218177
C       1.391019    4.739629   19.313961
C       1.620821    4.531734   17.971665
C       2.783277    3.884838   17.505530
C       2.788250    3.813709   16.083386
C       1.665852    4.370295   15.502876
C       1.662358    4.303833   14.078142
C       2.835832    3.654761   13.618050
C       2.293152    3.534731    9.871273
C       3.466183    4.169231    9.204010
C       3.637687    3.746474    7.761149
C       4.830930    4.260204    7.059357
C       4.986704    3.776894    5.629876
C       6.154169    4.266744    4.900892
C       6.317317    3.770600    3.490402
C       7.480255    4.285484    2.751923
C       7.621710    3.842929    1.428186
H       3.806980    2.974282   11.991325
H       0.354744    4.847656   11.178178
H      -0.027793    5.212042   13.394478
H       4.494816    2.999265   18.176678
H       4.086891    3.313727   20.411537
H       2.184169    4.419953   21.128004
H       0.622845    5.177487   19.602275
H       2.372292    2.572981    9.775025
H       1.490557    3.808183    9.399959
H       4.269613    3.940292    9.696473
H       3.363463    5.133521    9.238538
H       3.664067    2.777286    7.731800
H       2.852074    4.029332    7.267823
H       5.619827    4.000657    7.560452
H       4.793200    5.229458    7.055041
H       5.021792    2.807538    5.640666
H       4.192203    4.032169    5.136118
H       6.948294    4.023185    5.401556
H       6.112210    5.235698    4.878017
H       6.376450    2.802691    3.513709
H       5.516308    3.999618    2.993191
H       7.429980    5.253817    2.743723
H       8.281851    4.040968    3.240502
H       8.407148    4.236045    1.041467
H       7.704308    2.886177    1.417828
H       6.849880    4.102627    0.919754
S       6.881763    8.915422   14.835612
S       3.525785    7.171570   16.631095
C       6.030694    8.603659   12.194180
C       5.105782    8.137253   11.272268
C       3.962056    7.490955   11.751783
C       3.729764    7.300669   13.078973
C       6.664249    8.823902   18.379102
C       6.404213    8.708167   19.708881
C       5.240823    8.076822   20.161637
C       4.327402    7.571107   19.272527
C       4.578141    7.694837   17.921167
C       5.758368    8.319040   17.444242
C       5.761540    8.313504   16.017351
C       4.653821    7.744552   15.441587
C       4.648390    7.775644   14.020307
C       5.817823    8.412464   13.541655
C       5.305521    8.416894    9.797469
C       6.468827    7.777341    9.147469
C       6.664764    8.190946    7.698998
C       7.847410    7.680276    7.017922
C       8.022516    8.143844    5.594916
C       9.179532    7.654352    4.859890
C       9.340592    8.154158    3.454579
C      10.489900    7.620793    2.710489
C      10.653649    8.006200    1.414375
H       6.795441    9.044855   11.902414
H       3.335975    7.177781   11.139765
H       2.962341    6.856630   13.359086
H       7.445142    9.238875   18.092083
H       7.008492    9.053584   20.325647
H       5.085419    7.998723   21.075348
H       3.553144    7.153151   19.574652
H       4.505544    8.135908    9.326586
H       5.386383    9.376628    9.680935
H       6.357507    6.814184    9.185019
H       7.269031    8.000999    9.647701
H       5.883824    7.908637    7.197902
H       6.693564    9.160015    7.665332
H       7.809243    6.711101    7.022239
H       8.631050    7.943680    7.524629
H       7.227233    7.891286    5.099863
H       8.061102    9.112702    5.600095
H       9.133240    6.686122    4.833130
H       9.976596    7.892449    5.358395
H       8.532996    7.940459    2.960821
H       9.416938    9.120486    3.481338
H      11.294014    7.863385    3.196478
H      10.428527    6.652560    2.726459
H      11.437558    7.586798    1.052257
H       9.885042    7.744302    0.902921
H      10.754387    8.960412    1.374667



